%chk=2tThy_t1_freq.chk
%nprocshared=32
%mem=100GB
%rwf=2tThy_t1_freq.rwf
#p PBE1PBE/6-31g(d) td=(triplet,nstates=7,root=1,conver=6) scf=tight freq 6D 10F nosymm GFInput IOP(10/33=2, 10/95=9)

2tThy_t1_freq

0 1
N -1.812458 -0.393339  0.564053
C -3.193236 -0.497647  0.446440
N -3.844849  0.727222  0.400820
C -3.182787  1.890877  0.147251
C -1.838212  1.960323  0.056073
C -1.069971  0.745890  0.326133
S -3.900754 -1.711592 -0.613819
O  0.152551  0.704996  0.383914
C -1.102378  3.229382 -0.235122
H -3.812160  2.766764  0.047198
H -0.389778  3.462163  0.559503
H -0.533579  3.151194 -1.165183
H -1.799275  4.062677 -0.331434
H -4.844612  0.746269  0.519835
H -1.281199 -1.231706  0.748732

