%chk=anthracene_t1_freq.chk
%nprocshared=32
%mem=100GB
%rwf=anthracene_t1_freq.rwf
#p PBE1PBE/6-31g(d) td=(triplet,nstates=7,root=1,conver=6) scf=tight freq 6D 10F nosymm GFInput IOP(10/33=2, 10/95=9)

anthracene_t1_freq

0 1
 C       -0.00000000       1.24030982       0.71938880
 C       -0.00000000       0.00000000       1.39346263
 C       -0.00000000       1.24030982      -0.71938880
 C       -0.00000000      -1.24030982       0.71938880
 H       -0.00000000       0.00000000       2.48224242
 C       -0.00000000       2.47125979       1.39551850
 C       -0.00000000      -0.00000000      -1.39346263
 C       -0.00000000       2.47125979      -1.39551850
 C       -0.00000000      -1.24030982      -0.71938880
 C       -0.00000000      -2.47125979       1.39551850
 C       -0.00000000       3.69036839       0.69341496
 H       -0.00000000       2.47339661       2.48293492
 H        0.00000000      -0.00000000      -2.48224242
 C       -0.00000000       3.69036839      -0.69341496
 H       -0.00000000       2.47339661      -2.48293492
 C        0.00000000      -2.47125979      -1.39551850
 C        0.00000000      -3.69036839       0.69341496
 H       -0.00000000      -2.47339661       2.48293492
 H       -0.00000000       4.62692043       1.24338252
 H       -0.00000000       4.62692043      -1.24338252
 C        0.00000000      -3.69036839      -0.69341496
 H        0.00000000      -2.47339661      -2.48293492
 H        0.00000000      -4.62692043       1.24338252
 H        0.00000000      -4.62692043      -1.24338252

